Data/networks/opendssNetworks/network_2/Feeder_5/Loads - Copy.txt
New Load.LOAD1 Phases=1 Bus1=124.1 kV=0.23 kW=1 PF=0.95
New Load.LOAD2 Phases=1 Bus1=125.1 kV=0.23 kW=1 PF=0.95
New Load.LOAD3 Phases=1 Bus1=139.1 kV=0.23 kW=1 PF=0.95
New Load.LOAD4 Phases=1 Bus1=142.2 kV=0.23 kW=1 PF=0.95
New Load.LOAD5 Phases=1 Bus1=149.1 kV=0.23 kW=1 PF=0.95
New Load.LOAD6 Phases=1 Bus1=151.3 kV=0.23 kW=1 PF=0.95
New Load.LOAD7 Phases=1 Bus1=159.2 kV=0.23 kW=1 PF=0.95
New Load.LOAD8 Phases=1 Bus1=160.3 kV=0.23 kW=1 PF=0.95
New Load.LOAD9 Phases=1 Bus1=161.2 kV=0.23 kW=1 PF=0.95
New Load.LOAD10 Phases=1 Bus1=167.2 kV=0.23 kW=1 PF=0.95
New Load.LOAD11 Phases=1 Bus1=173.3 kV=0.23 kW=1 PF=0.95
New Load.LOAD12 Phases=1 Bus1=178.3 kV=0.23 kW=1 PF=0.95
New Load.LOAD13 Phases=1 Bus1=194.1 kV=0.23 kW=1 PF=0.95
New Load.LOAD14 Phases=1 Bus1=200.1 kV=0.23 kW=1 PF=0.95
New Load.LOAD15 Phases=1 Bus1=216.2 kV=0.23 kW=1 PF=0.95
New Load.LOAD16 Phases=1 Bus1=222.2 kV=0.23 kW=1 PF=0.95
New Load.LOAD17 Phases=1 Bus1=232.3 kV=0.23 kW=1 PF=0.95
New Load.LOAD18 Phases=1 Bus1=238.3 kV=0.23 kW=1 PF=0.95
New Load.LOAD19 Phases=1 Bus1=243.1 kV=0.23 kW=1 PF=0.95
New Load.LOAD20 Phases=1 Bus1=256.1 kV=0.23 kW=1 PF=0.95
New Load.LOAD21 Phases=1 Bus1=268.2 kV=0.23 kW=1 PF=0.95
New Load.LOAD22 Phases=1 Bus1=274.1 kV=0.23 kW=1 PF=0.95
New Load.LOAD23 Phases=1 Bus1=308.2 kV=0.23 kW=1 PF=0.95
